LAMMPS (14 May 2016)

#  Created by Wassim Kassem 18/07/2016

units       metal
dimension   3
boundary    p      p     p  #layers are stacked along z
atom_style  atomic          #no need for charges or bonds

#------------ Constant parameters -------------------------------
variable   sqrt3      equal  sqrt(3)

#------------ Variable parameters -------------------------------
variable    T     index  300 #Kelvins - temperature for equilibration of the system
variable    T2    equal 2*$T
variable    T2    equal 2*300

#------------ Create the box ----------------------------------
read_data   /home/wassim/work/Cai_periodic/md/Zr/dipole_min.data
  triclinic box = (-9.70236 -41.3438 -44.8151) to (9.70237 41.3438 44.8151) with tilt (0 1.22973 0)
  reading atoms ...
  6144 atoms

#----------------------------Define potential-------------------
mass        1 91.224
timestep    0.005

pair_style eam/fs
pair_coeff * * ../potentials/Zr_3.eam.fs Zr

velocity    all set 0 0 0

#---------- Minmize forces ----------------------------------
variable      nmin index 20000
variable      ndump equal 10000/1000

timestep      0.05
compute       mype all pe
variable      eelastic    equal c_mype/lx  #elastic energy per A along X

thermo        100
thermo_style  custom step press v_eelastic

dump          min all custom 10 /home/wassim/work/Cai_periodic/md/Zr/_dipole_min.data/dump.min.dat id x y z

fix           bxrlx all box/relax z 0.0 xz 0.0 xy 0.0 y 0.0

#min_style     quickmin
minimize      1e-20 1e-30 10000 100000
  1 neighbor list requests
  update every 1 steps, delay 0 steps, check yes
Step Press eelastic
0   -974.30045   -2099.6011
Averages over the last 51 of 101 rows, steps 5000 to 10000:
Press eelastic
-594.242 -2099.63
Loop time of 201.049 on 4 procs for 10000 steps with 6144 atoms

Minimization stats:
  Stopping criterion = max iterations
  Energy initial, next-to-last, final =
  Force two-norm initial, final = 77.1433 0.245628
  Force max component initial, final = 77.1285 0.0996602
  Final line search alpha, max atom move = 0.000332242 3.31113e-05
  Iterations, force evaluations = 10000 16961

min_style     cg
#fix           bxrlx all box/relax x 0.0 y 0.0 fixedpoint 0 0 0
#minimize      1e-35 1e-50 50000 1000000
#unfix         bxrlx

undump        min
unfix        bxrlx
quit
